LAMMPS (15 Jun 2023)
Loaded 1 plugins from C:\Users\noae1\AppData\Local\LAMMPS 64-bit 15Jun2023\plugins
package omp 4
set 4 OpenMP thread(s) per MPI task
using multi-threaded neighbor list subroutines
# ---------- Initialize simulation ---------------------
units lj
atom_style atomic
dimension  3
boundary   p p p
read_data C:/Users/noae1/lammps/results/dislocation2_brownian_rcut_0.932/output/temperature_0.0001_s_1_rstart_0.5_timestep_1e-05_dumpstep_100_nstep_1000/mid_input/loc_test.data
Reading data file ...
  orthogonal box = (-20 -20 0) to (20 20 41.0122)
  reading atoms ...
  91200 atoms
mass * 1.0
group immobile type 2
11000 atoms in group immobile
group mobile type 1
80200 atoms in group mobile

pair_style table linear 10000
pair_coeff * * potential.table power_law 0.932
Reading pair table potential file potential.table with DATE: 2024-10-6

velocity mobile create 0.0001 87287 dist gaussian
velocity immobile set 0.0 0.0 0.0
compute displ all displace/atom
fix 1 all nve
fix 2 mobile brownian 0.0001 3213 gamma_t 1.0
fix 3 mobile recenter INIT INIT INIT
fix 4 immobile setforce 0.0 0.0 0.0
#--------- Dump file ------------------
thermo_style custom step pe ke temp press
thermo 10000
dump 1 all custom 10000 dump.* id type x y z

# --------- Run -------------
timestep 0.0001
run 10000000
Generated 0 of 1 mixed pair_coeff terms from geometric mixing rule
Last active /omp style is pair_style table/omp
Step         PotEng         KinEng          Temp          Press
0   86.281264      0.00013190625  8.7938464e-05  3977.1467
Averages over the last 501 of 1001 rows, steps 5000000 to 10000000:
PotEng KinEng Temp Press
86.2808 2.64438 1.76294 3979.57
Loop time of 109655 on 4 procs for 10000000 steps with 91200 atoms
